# generated using pymatgen
data_Tl5Te3
_symmetry_space_group_name_H-M   'P 1'
_cell_length_a   9.07418769
_cell_length_b   9.07418768
_cell_length_c   9.15781790
_cell_angle_alpha   119.69836918
_cell_angle_beta   119.69836919
_cell_angle_gamma   89.99999997
_symmetry_Int_Tables_number   1
_chemical_formula_structural   Tl5Te3
_chemical_formula_sum   'Tl10 Te6'
_cell_volume   538.02812511
_cell_formula_units_Z   2
loop_
 _symmetry_equiv_pos_site_id
 _symmetry_equiv_pos_as_xyz
  1  'x, y, z'
loop_
 _atom_site_type_symbol
 _atom_site_label
 _atom_site_symmetry_multiplicity
 _atom_site_fract_x
 _atom_site_fract_y
 _atom_site_fract_z
 _atom_site_occupancy
  Te  Te0  1  0.157494  0.342506  0.000000  1
  Te  Te1  1  0.657494  0.157494  0.000000  1
  Te  Te2  1  0.342506  0.842506  0.000000  1
  Te  Te3  1  0.842506  0.657494  0.000000  1
  Te  Te4  1  0.750000  0.750000  0.500000  1
  Te  Te5  1  0.250000  0.250000  0.500000  1
  Tl  Tl6  1  0.195142  0.992553  0.687695  1
  Tl  Tl7  1  0.804858  0.007447  0.312305  1
  Tl  Tl8  1  0.000000  0.000000  0.000000  1
  Tl  Tl9  1  0.500000  0.500000  0.000000  1
  Tl  Tl10  1  0.492553  0.695142  0.687695  1
  Tl  Tl11  1  0.992553  0.492553  0.687695  1
  Tl  Tl12  1  0.695142  0.195142  0.687695  1
  Tl  Tl13  1  0.304858  0.804858  0.312305  1
  Tl  Tl14  1  0.007447  0.507447  0.312305  1
  Tl  Tl15  1  0.507447  0.304858  0.312305  1
