# generated using pymatgen
data_TaTe4
_symmetry_space_group_name_H-M   'P 1'
_cell_length_a   9.37401816
_cell_length_b   9.37401816
_cell_length_c   20.90990554
_cell_angle_alpha   90.00000000
_cell_angle_beta   90.00000000
_cell_angle_gamma   90.00000000
_symmetry_Int_Tables_number   1
_chemical_formula_structural   TaTe4
_chemical_formula_sum   'Ta12 Te48'
_cell_volume   1837.39974585
_cell_formula_units_Z   12
loop_
 _symmetry_equiv_pos_site_id
 _symmetry_equiv_pos_as_xyz
  1  'x, y, z'
loop_
 _atom_site_type_symbol
 _atom_site_label
 _atom_site_symmetry_multiplicity
 _atom_site_fract_x
 _atom_site_fract_y
 _atom_site_fract_z
 _atom_site_occupancy
  Te  Te0  1  0.487091  0.158235  0.003348  1
  Te  Te1  1  0.012909  0.341765  0.003348  1
  Te  Te2  1  0.658235  0.987091  0.496652  1
  Te  Te3  1  0.158235  0.012909  0.003348  1
  Te  Te4  1  0.341765  0.487091  0.003348  1
  Te  Te5  1  0.512909  0.658235  0.496652  1
  Te  Te6  1  0.987091  0.841765  0.496652  1
  Te  Te7  1  0.841765  0.512909  0.496652  1
  Te  Te8  1  0.512909  0.841765  0.996652  1
  Te  Te9  1  0.987091  0.658235  0.996652  1
  Te  Te10  1  0.341765  0.012909  0.503348  1
  Te  Te11  1  0.841765  0.987091  0.996652  1
  Te  Te12  1  0.009023  0.334538  0.664432  1
  Te  Te13  1  0.165462  0.009023  0.664432  1
  Te  Te14  1  0.334538  0.490977  0.664432  1
  Te  Te15  1  0.509023  0.665462  0.835568  1
  Te  Te16  1  0.990977  0.834538  0.835568  1
  Te  Te17  1  0.490977  0.165462  0.664432  1
  Te  Te18  1  0.834538  0.509023  0.835568  1
  Te  Te19  1  0.665462  0.990977  0.835568  1
  Te  Te20  1  0.990977  0.665462  0.335568  1
  Te  Te21  1  0.834538  0.990977  0.335568  1
  Te  Te22  1  0.665462  0.509023  0.335568  1
  Te  Te23  1  0.490977  0.334538  0.164432  1
  Te  Te24  1  0.009023  0.165462  0.164432  1
  Te  Te25  1  0.509023  0.834538  0.335568  1
  Te  Te26  1  0.165462  0.490977  0.164432  1
  Te  Te27  1  0.334538  0.009023  0.164432  1
  Te  Te28  1  0.463246  0.345894  0.833930  1
  Te  Te29  1  0.154106  0.463246  0.833930  1
  Te  Te30  1  0.345894  0.036754  0.833930  1
  Te  Te31  1  0.963246  0.654106  0.666070  1
  Te  Te32  1  0.536754  0.845894  0.666070  1
  Te  Te33  1  0.036754  0.154106  0.833930  1
  Te  Te34  1  0.845894  0.963246  0.666070  1
  Te  Te35  1  0.654106  0.536754  0.666070  1
  Te  Te36  1  0.536754  0.654106  0.166070  1
  Te  Te37  1  0.845894  0.536754  0.166070  1
  Te  Te38  1  0.654106  0.963246  0.166070  1
  Te  Te39  1  0.036754  0.345894  0.333930  1
  Te  Te40  1  0.463246  0.154106  0.333930  1
  Te  Te41  1  0.963246  0.845894  0.166070  1
  Te  Te42  1  0.154106  0.036754  0.333930  1
  Te  Te43  1  0.345894  0.463246  0.333930  1
  Te  Te44  1  0.158235  0.487091  0.503348  1
  Te  Te45  1  0.012909  0.158235  0.503348  1
  Te  Te46  1  0.487091  0.341765  0.503348  1
  Te  Te47  1  0.658235  0.512909  0.996652  1
  Ta  Ta48  1  0.250000  0.250000  0.931216  1
  Ta  Ta49  1  0.750000  0.750000  0.568784  1
  Ta  Ta50  1  0.750000  0.750000  0.068784  1
  Ta  Ta51  1  0.250000  0.250000  0.431216  1
  Ta  Ta52  1  0.250000  0.250000  0.236346  1
  Ta  Ta53  1  0.750000  0.750000  0.263654  1
  Ta  Ta54  1  0.750000  0.750000  0.763654  1
  Ta  Ta55  1  0.250000  0.250000  0.736346  1
  Ta  Ta56  1  0.250000  0.250000  0.084480  1
  Ta  Ta57  1  0.750000  0.750000  0.415520  1
  Ta  Ta58  1  0.750000  0.750000  0.915520  1
  Ta  Ta59  1  0.250000  0.250000  0.584480  1
