# generated using pymatgen
data_Mo9Se11
_symmetry_space_group_name_H-M   'P 1'
_cell_length_a   9.02403749
_cell_length_b   9.02403749
_cell_length_c   11.17894854
_cell_angle_alpha   90.00000000
_cell_angle_beta   90.00000000
_cell_angle_gamma   95.79067035
_symmetry_Int_Tables_number   1
_chemical_formula_structural   Mo9Se11
_chemical_formula_sum   'Mo18 Se22'
_cell_volume   905.69282250
_cell_formula_units_Z   2
loop_
 _symmetry_equiv_pos_site_id
 _symmetry_equiv_pos_as_xyz
  1  'x, y, z'
loop_
 _atom_site_type_symbol
 _atom_site_label
 _atom_site_symmetry_multiplicity
 _atom_site_fract_x
 _atom_site_fract_y
 _atom_site_fract_z
 _atom_site_occupancy
  Se  Se0  1  0.413888  0.871558  0.750000  1
  Se  Se1  1  0.586112  0.128442  0.250000  1
  Se  Se2  1  0.871558  0.413888  0.250000  1
  Se  Se3  1  0.128442  0.586112  0.750000  1
  Se  Se4  1  0.944085  0.708076  0.481756  1
  Se  Se5  1  0.055915  0.291924  0.981756  1
  Se  Se6  1  0.708076  0.944085  0.518244  1
  Se  Se7  1  0.291924  0.055915  0.018244  1
  Se  Se8  1  0.055915  0.291924  0.518244  1
  Se  Se9  1  0.944085  0.708076  0.018244  1
  Se  Se10  1  0.291924  0.055915  0.481756  1
  Se  Se11  1  0.708076  0.944085  0.981756  1
  Se  Se12  1  0.366109  0.279454  0.750000  1
  Se  Se13  1  0.633891  0.720546  0.250000  1
  Se  Se14  1  0.279454  0.366109  0.250000  1
  Se  Se15  1  0.720546  0.633891  0.750000  1
  Se  Se16  1  0.654350  0.345650  0.517640  1
  Se  Se17  1  0.345650  0.654350  0.017640  1
  Se  Se18  1  0.987861  0.012139  0.750000  1
  Se  Se19  1  0.012139  0.987861  0.250000  1
  Se  Se20  1  0.654350  0.345650  0.982360  1
  Se  Se21  1  0.345650  0.654350  0.482360  1
  Mo  Mo22  1  0.481586  0.900688  0.370223  1
  Mo  Mo23  1  0.518414  0.099312  0.870223  1
  Mo  Mo24  1  0.900688  0.481586  0.629777  1
  Mo  Mo25  1  0.099312  0.518414  0.129777  1
  Mo  Mo26  1  0.518414  0.099312  0.629777  1
  Mo  Mo27  1  0.481586  0.900688  0.129777  1
  Mo  Mo28  1  0.099312  0.518414  0.370223  1
  Mo  Mo29  1  0.900688  0.481586  0.870223  1
  Mo  Mo30  1  0.692999  0.927163  0.750000  1
  Mo  Mo31  1  0.307001  0.072837  0.250000  1
  Mo  Mo32  1  0.927163  0.692999  0.250000  1
  Mo  Mo33  1  0.072837  0.307001  0.750000  1
  Mo  Mo34  1  0.353065  0.646935  0.250000  1
  Mo  Mo35  1  0.646935  0.353065  0.750000  1
  Mo  Mo36  1  0.822010  0.177990  0.628490  1
  Mo  Mo37  1  0.177990  0.822010  0.128490  1
  Mo  Mo38  1  0.177990  0.822010  0.371511  1
  Mo  Mo39  1  0.822010  0.177990  0.871510  1
