# generated using pymatgen
data_BaLi4
_symmetry_space_group_name_H-M   'P 1'
_cell_length_a   8.73791453
_cell_length_b   10.86040791
_cell_length_c   10.86040791
_cell_angle_alpha   120.20158034
_cell_angle_beta   90.00000000
_cell_angle_gamma   90.00000000
_symmetry_Int_Tables_number   1
_chemical_formula_structural   BaLi4
_chemical_formula_sum   'Ba6 Li24'
_cell_volume   890.72767541
_cell_formula_units_Z   6
loop_
 _symmetry_equiv_pos_site_id
 _symmetry_equiv_pos_as_xyz
  1  'x, y, z'
loop_
 _atom_site_type_symbol
 _atom_site_label
 _atom_site_symmetry_multiplicity
 _atom_site_fract_x
 _atom_site_fract_y
 _atom_site_fract_z
 _atom_site_occupancy
  Ba  Ba0  1  0.750000  0.528196  0.056539  1
  Ba  Ba1  1  0.750000  0.528163  0.471837  1
  Ba  Ba2  1  0.750000  0.943461  0.471804  1
  Ba  Ba3  1  0.250000  0.471804  0.943461  1
  Ba  Ba4  1  0.250000  0.471837  0.528163  1
  Ba  Ba5  1  0.250000  0.056539  0.528196  1
  Li  Li6  1  0.500000  0.000000  0.000000  1
  Li  Li7  1  0.000000  0.000000  0.000000  1
  Li  Li8  1  0.084817  0.666665  0.333335  1
  Li  Li9  1  0.915183  0.333335  0.666665  1
  Li  Li10  1  0.584817  0.333335  0.666665  1
  Li  Li11  1  0.415183  0.666665  0.333335  1
  Li  Li12  1  0.750000  0.900492  0.801013  1
  Li  Li13  1  0.750000  0.900376  0.099624  1
  Li  Li14  1  0.750000  0.198987  0.099508  1
  Li  Li15  1  0.250000  0.099508  0.198987  1
  Li  Li16  1  0.250000  0.099624  0.900376  1
  Li  Li17  1  0.250000  0.801013  0.900492  1
  Li  Li18  1  0.066648  0.836547  0.673193  1
  Li  Li19  1  0.066700  0.836547  0.163453  1
  Li  Li20  1  0.066648  0.326807  0.163453  1
  Li  Li21  1  0.933352  0.163453  0.326807  1
  Li  Li22  1  0.933300  0.163453  0.836547  1
  Li  Li23  1  0.933352  0.673193  0.836547  1
  Li  Li24  1  0.566648  0.163453  0.326807  1
  Li  Li25  1  0.566700  0.163453  0.836547  1
  Li  Li26  1  0.566648  0.673193  0.836547  1
  Li  Li27  1  0.433352  0.836547  0.673193  1
  Li  Li28  1  0.433300  0.836547  0.163453  1
  Li  Li29  1  0.433352  0.326807  0.163453  1
