# generated using pymatgen
data_Er2Se3
_symmetry_space_group_name_H-M   'P 1'
_cell_length_a   7.04120363
_cell_length_b   7.04120362
_cell_length_c   12.84126136
_cell_angle_alpha   100.66993288
_cell_angle_beta   100.66993291
_cell_angle_gamma   108.94552056
_symmetry_Int_Tables_number   1
_chemical_formula_structural   Er2Se3
_chemical_formula_sum   'Er8 Se12'
_cell_volume   570.77766466
_cell_formula_units_Z   4
loop_
 _symmetry_equiv_pos_site_id
 _symmetry_equiv_pos_as_xyz
  1  'x, y, z'
loop_
 _atom_site_type_symbol
 _atom_site_label
 _atom_site_symmetry_multiplicity
 _atom_site_fract_x
 _atom_site_fract_y
 _atom_site_fract_z
 _atom_site_occupancy
  Se  Se0  1  0.539238  0.282963  0.087999  1
  Se  Se1  1  0.194964  0.951239  0.412001  1
  Se  Se2  1  0.717037  0.460762  0.412001  1
  Se  Se3  1  0.048761  0.805036  0.087999  1
  Se  Se4  1  0.460762  0.717037  0.912001  1
  Se  Se5  1  0.805036  0.048761  0.587999  1
  Se  Se6  1  0.282963  0.539238  0.587999  1
  Se  Se7  1  0.951239  0.194964  0.912001  1
  Se  Se8  1  0.882768  0.632768  0.750000  1
  Se  Se9  1  0.367232  0.117232  0.750000  1
  Se  Se10  1  0.117232  0.367232  0.250000  1
  Se  Se11  1  0.632768  0.882768  0.250000  1
  Er  Er12  1  0.127672  0.377672  0.755343  1
  Er  Er13  1  0.622328  0.872328  0.744657  1
  Er  Er14  1  0.872328  0.622328  0.244657  1
  Er  Er15  1  0.377672  0.127672  0.255343  1
  Er  Er16  1  0.791165  0.041165  0.082330  1
  Er  Er17  1  0.958835  0.208835  0.417670  1
  Er  Er18  1  0.208835  0.958835  0.917670  1
  Er  Er19  1  0.041165  0.791165  0.582330  1
