# generated using pymatgen
data_Tb5Si3
_symmetry_space_group_name_H-M   'P 1'
_cell_length_a   8.49305803
_cell_length_b   8.49305803
_cell_length_c   6.41440187
_cell_angle_alpha   90.00000000
_cell_angle_beta   90.00000000
_cell_angle_gamma   119.99999997
_symmetry_Int_Tables_number   1
_chemical_formula_structural   Tb5Si3
_chemical_formula_sum   'Tb10 Si6'
_cell_volume   400.69597520
_cell_formula_units_Z   2
loop_
 _symmetry_equiv_pos_site_id
 _symmetry_equiv_pos_as_xyz
  1  'x, y, z'
loop_
 _atom_site_type_symbol
 _atom_site_label
 _atom_site_symmetry_multiplicity
 _atom_site_fract_x
 _atom_site_fract_y
 _atom_site_fract_z
 _atom_site_occupancy
  Si  Si0  1  0.394404  0.000000  0.750000  1
  Si  Si1  1  0.394404  0.394404  0.250000  1
  Si  Si2  1  0.000000  0.605596  0.250000  1
  Si  Si3  1  0.000000  0.394404  0.750000  1
  Si  Si4  1  0.605596  0.605596  0.750000  1
  Si  Si5  1  0.605596  0.000000  0.250000  1
  Tb  Tb6  1  0.000000  0.756597  0.750000  1
  Tb  Tb7  1  0.000000  0.243403  0.250000  1
  Tb  Tb8  1  0.756597  0.756597  0.250000  1
  Tb  Tb9  1  0.756597  0.000000  0.750000  1
  Tb  Tb10  1  0.243403  0.243403  0.750000  1
  Tb  Tb11  1  0.243403  0.000000  0.250000  1
  Tb  Tb12  1  0.333333  0.666667  0.500000  1
  Tb  Tb13  1  0.666667  0.333333  0.000000  1
  Tb  Tb14  1  0.666667  0.333333  0.500000  1
  Tb  Tb15  1  0.333333  0.666667  0.000000  1
