# generated using pymatgen
data_SN
_symmetry_space_group_name_H-M   'P 1'
_cell_length_a   4.28453004
_cell_length_b   4.40440608
_cell_length_c   8.91309146
_cell_angle_alpha   103.43750244
_cell_angle_beta   90.00000000
_cell_angle_gamma   90.00000000
_symmetry_Int_Tables_number   1
_chemical_formula_structural   SN
_chemical_formula_sum   'S4 N4'
_cell_volume   163.59268541
_cell_formula_units_Z   4
loop_
 _symmetry_equiv_pos_site_id
 _symmetry_equiv_pos_as_xyz
  1  'x, y, z'
loop_
 _atom_site_type_symbol
 _atom_site_label
 _atom_site_symmetry_multiplicity
 _atom_site_fract_x
 _atom_site_fract_y
 _atom_site_fract_z
 _atom_site_occupancy
  N  N0  1  0.444307  0.753816  0.568490  1
  N  N1  1  0.944307  0.746184  0.931510  1
  N  N2  1  0.555693  0.246184  0.431510  1
  N  N3  1  0.055693  0.253816  0.068490  1
  S  S4  1  0.394550  0.399026  0.600085  1
  S  S5  1  0.894550  0.100974  0.899915  1
  S  S6  1  0.605450  0.600974  0.399915  1
  S  S7  1  0.105450  0.899026  0.100085  1
