# generated using pymatgen
data_UF4
_symmetry_space_group_name_H-M   'P 1'
_cell_length_a   8.42078783
_cell_length_b   8.42078783
_cell_length_c   8.43062976
_cell_angle_alpha   63.12341438
_cell_angle_beta   63.12341442
_cell_angle_gamma   80.22399052
_symmetry_Int_Tables_number   1
_chemical_formula_structural   UF4
_chemical_formula_sum   'U6 F24'
_cell_volume   475.19037622
_cell_formula_units_Z   6
loop_
 _symmetry_equiv_pos_site_id
 _symmetry_equiv_pos_as_xyz
  1  'x, y, z'
loop_
 _atom_site_type_symbol
 _atom_site_label
 _atom_site_symmetry_multiplicity
 _atom_site_fract_x
 _atom_site_fract_y
 _atom_site_fract_z
 _atom_site_occupancy
  F  F0  1  0.273547  0.973851  0.848177  1
  F  F1  1  0.026149  0.726453  0.651823  1
  F  F2  1  0.726453  0.026149  0.151823  1
  F  F3  1  0.973851  0.273547  0.348177  1
  F  F4  1  0.497337  0.745034  0.709372  1
  F  F5  1  0.254966  0.502663  0.790628  1
  F  F6  1  0.500000  0.000000  0.000000  1
  F  F7  1  0.000000  0.500000  0.500000  1
  F  F8  1  0.600958  0.399042  0.750000  1
  F  F9  1  0.399042  0.600958  0.250000  1
  F  F10  1  0.189702  0.600427  0.072943  1
  F  F11  1  0.399573  0.810298  0.427057  1
  F  F12  1  0.810298  0.399573  0.927057  1
  F  F13  1  0.600427  0.189702  0.572943  1
  F  F14  1  0.932644  0.823281  0.954793  1
  F  F15  1  0.176719  0.067356  0.545207  1
  F  F16  1  0.067356  0.176719  0.045207  1
  F  F17  1  0.823281  0.932644  0.454793  1
  F  F18  1  0.322827  0.261420  0.104459  1
  F  F19  1  0.738580  0.677173  0.395541  1
  F  F20  1  0.677173  0.738580  0.895541  1
  F  F21  1  0.261420  0.322827  0.604459  1
  F  F22  1  0.745034  0.497337  0.209372  1
  F  F23  1  0.502663  0.254966  0.290628  1
  U  U24  1  0.776011  0.632056  0.670303  1
  U  U25  1  0.367944  0.223989  0.829697  1
  U  U26  1  0.223989  0.367944  0.329697  1
  U  U27  1  0.632056  0.776011  0.170303  1
  U  U28  1  0.787254  0.212746  0.250000  1
  U  U29  1  0.212746  0.787254  0.750000  1
