# generated using pymatgen
data_SN
_symmetry_space_group_name_H-M   'P 1'
_cell_length_a   4.75711590
_cell_length_b   4.53351105
_cell_length_c   7.96497770
_cell_angle_alpha   90.00000000
_cell_angle_beta   101.52888490
_cell_angle_gamma   90.00000000
_symmetry_Int_Tables_number   1
_chemical_formula_structural   SN
_chemical_formula_sum   'S4 N4'
_cell_volume   168.31044972
_cell_formula_units_Z   4
loop_
 _symmetry_equiv_pos_site_id
 _symmetry_equiv_pos_as_xyz
  1  'x, y, z'
loop_
 _atom_site_type_symbol
 _atom_site_label
 _atom_site_symmetry_multiplicity
 _atom_site_fract_x
 _atom_site_fract_y
 _atom_site_fract_z
 _atom_site_occupancy
  N  N0  1  0.310066  0.934946  0.187225  1
  N  N1  1  0.189934  0.434946  0.312775  1
  N  N2  1  0.689934  0.065054  0.812775  1
  N  N3  1  0.810066  0.565054  0.687225  1
  S  S4  1  0.331317  0.284247  0.164801  1
  S  S5  1  0.168683  0.784247  0.335199  1
  S  S6  1  0.668683  0.715753  0.835199  1
  S  S7  1  0.831317  0.215753  0.664801  1
