# generated using pymatgen
data_LaP7
_symmetry_space_group_name_H-M   'P 1'
_cell_length_a   7.04317895
_cell_length_b   7.96799215
_cell_length_c   11.71653222
_cell_angle_alpha   90.00000000
_cell_angle_beta   90.00000000
_cell_angle_gamma   93.13932430
_symmetry_Int_Tables_number   1
_chemical_formula_structural   LaP7
_chemical_formula_sum   'La4 P28'
_cell_volume   656.54497864
_cell_formula_units_Z   4
loop_
 _symmetry_equiv_pos_site_id
 _symmetry_equiv_pos_as_xyz
  1  'x, y, z'
loop_
 _atom_site_type_symbol
 _atom_site_label
 _atom_site_symmetry_multiplicity
 _atom_site_fract_x
 _atom_site_fract_y
 _atom_site_fract_z
 _atom_site_occupancy
  P  P0  1  0.463603  0.749671  0.219556  1
  P  P1  1  0.036397  0.750329  0.719556  1
  P  P2  1  0.536397  0.250329  0.780444  1
  P  P3  1  0.963603  0.249671  0.280444  1
  P  P4  1  0.903109  0.591648  0.465912  1
  P  P5  1  0.596891  0.908352  0.965912  1
  P  P6  1  0.096891  0.408352  0.534088  1
  P  P7  1  0.403109  0.091648  0.034088  1
  P  P8  1  0.624128  0.262261  0.115264  1
  P  P9  1  0.875872  0.237739  0.615264  1
  P  P10  1  0.375872  0.737739  0.884736  1
  P  P11  1  0.124128  0.762261  0.384736  1
  P  P12  1  0.752187  0.048813  0.337369  1
  P  P13  1  0.747813  0.451187  0.837369  1
  P  P14  1  0.247813  0.951187  0.662631  1
  P  P15  1  0.252187  0.548813  0.162631  1
  P  P16  1  0.912593  0.177345  0.099018  1
  P  P17  1  0.587407  0.322655  0.599018  1
  P  P18  1  0.087407  0.822655  0.900982  1
  P  P19  1  0.412593  0.677345  0.400982  1
  P  P20  1  0.845205  0.007130  0.511973  1
  P  P21  1  0.654795  0.492870  0.011973  1
  P  P22  1  0.154795  0.992870  0.488027  1
  P  P23  1  0.345205  0.507130  0.988027  1
  P  P24  1  0.785301  0.472441  0.310076  1
  P  P25  1  0.714699  0.027559  0.810076  1
  P  P26  1  0.214699  0.527559  0.689924  1
  P  P27  1  0.285301  0.972441  0.189924  1
  La  La28  1  0.398031  0.283696  0.349135  1
  La  La29  1  0.101969  0.216304  0.849135  1
  La  La30  1  0.601969  0.716304  0.650865  1
  La  La31  1  0.898031  0.783696  0.150865  1
