# generated using pymatgen
data_Yb5Sb3
_symmetry_space_group_name_H-M   'P 1'
_cell_length_a   9.07073260
_cell_length_b   9.07073260
_cell_length_c   6.89263701
_cell_angle_alpha   90.00000000
_cell_angle_beta   90.00000000
_cell_angle_gamma   120.00000001
_symmetry_Int_Tables_number   1
_chemical_formula_structural   Yb5Sb3
_chemical_formula_sum   'Yb10 Sb6'
_cell_volume   491.13486813
_cell_formula_units_Z   2
loop_
 _symmetry_equiv_pos_site_id
 _symmetry_equiv_pos_as_xyz
  1  'x, y, z'
loop_
 _atom_site_type_symbol
 _atom_site_label
 _atom_site_symmetry_multiplicity
 _atom_site_fract_x
 _atom_site_fract_y
 _atom_site_fract_z
 _atom_site_occupancy
  Sb  Sb0  1  0.388971  0.000000  0.750000  1
  Sb  Sb1  1  0.388971  0.388971  0.250000  1
  Sb  Sb2  1  0.000000  0.611029  0.250000  1
  Sb  Sb3  1  0.000000  0.388971  0.750000  1
  Sb  Sb4  1  0.611029  0.611029  0.750000  1
  Sb  Sb5  1  0.611029  0.000000  0.250000  1
  Yb  Yb6  1  0.000000  0.746269  0.750000  1
  Yb  Yb7  1  0.000000  0.253731  0.250000  1
  Yb  Yb8  1  0.746269  0.746269  0.250000  1
  Yb  Yb9  1  0.746269  0.000000  0.750000  1
  Yb  Yb10  1  0.253731  0.253731  0.750000  1
  Yb  Yb11  1  0.253731  0.000000  0.250000  1
  Yb  Yb12  1  0.333333  0.666667  0.500000  1
  Yb  Yb13  1  0.666667  0.333333  0.000000  1
  Yb  Yb14  1  0.666667  0.333333  0.500000  1
  Yb  Yb15  1  0.333333  0.666667  0.000000  1
