# generated using pymatgen
data_UO3
_symmetry_space_group_name_H-M   'P 1'
_cell_length_a   6.97865760
_cell_length_b   6.97865761
_cell_length_c   11.24380402
_cell_angle_alpha   108.07932850
_cell_angle_beta   108.07932856
_cell_angle_gamma   90.00000004
_symmetry_Int_Tables_number   1
_chemical_formula_structural   UO3
_chemical_formula_sum   'U8 O24'
_cell_volume   492.03696175
_cell_formula_units_Z   8
loop_
 _symmetry_equiv_pos_site_id
 _symmetry_equiv_pos_as_xyz
  1  'x, y, z'
loop_
 _atom_site_type_symbol
 _atom_site_label
 _atom_site_symmetry_multiplicity
 _atom_site_fract_x
 _atom_site_fract_y
 _atom_site_fract_z
 _atom_site_occupancy
  O  O0  1  0.076219  0.066374  0.132747  1
  O  O1  1  0.433626  0.943472  0.367253  1
  O  O2  1  0.433626  0.423781  0.367253  1
  O  O3  1  0.443472  0.933626  0.867253  1
  O  O4  1  0.923781  0.933626  0.867253  1
  O  O5  1  0.566374  0.576219  0.632747  1
  O  O6  1  0.566374  0.056528  0.632747  1
  O  O7  1  0.556528  0.066374  0.132747  1
  O  O8  1  0.458012  0.407349  0.814698  1
  O  O9  1  0.907349  0.958012  0.314698  1
  O  O10  1  0.907349  0.356686  0.314698  1
  O  O11  1  0.143314  0.592651  0.185302  1
  O  O12  1  0.541988  0.592651  0.185302  1
  O  O13  1  0.092651  0.643314  0.685302  1
  O  O14  1  0.092651  0.041988  0.685302  1
  O  O15  1  0.856686  0.407349  0.814698  1
  O  O16  1  0.208480  0.265783  0.531565  1
  O  O17  1  0.765783  0.708480  0.031565  1
  O  O18  1  0.765783  0.323085  0.031565  1
  O  O19  1  0.176915  0.734217  0.468435  1
  O  O20  1  0.791520  0.734217  0.468435  1
  O  O21  1  0.234217  0.676915  0.968435  1
  O  O22  1  0.234217  0.291520  0.968435  1
  O  O23  1  0.823085  0.265783  0.531565  1
  U  U24  1  0.000000  0.500000  0.000000  1
  U  U25  1  0.000000  0.500000  0.500000  1
  U  U26  1  0.000000  0.000000  0.500000  1
  U  U27  1  0.500000  0.500000  0.000000  1
  U  U28  1  0.436005  0.686005  0.372011  1
  U  U29  1  0.186005  0.936005  0.872011  1
  U  U30  1  0.563995  0.313995  0.627989  1
  U  U31  1  0.813995  0.063995  0.127989  1
